*SPEF "IEEE 1481-1998"
*DESIGN "FIR"
*DATE "Thu Nov 18 20:15:37 2021"
*VENDOR "Cadence Design Systems, Inc."
*PROGRAM "Innovus"
*VERSION "17.11-s080_1"
*DESIGN_FLOW "COUPLING C" "PIN_CAP NONE" "NAME_SCOPE LOCAL"
*DIVIDER /
*DELIMITER :
*BUS_DELIMITER []
*T_UNIT 1 NS
*C_UNIT 1 PF
*R_UNIT 1 OHM
*L_UNIT 1 HENRY

// MMMC spef file for corner 'my_rc'

*NAME_MAP

*1 din[7]
*2 din[6]
*3 din[5]
*4 din[4]
*5 din[3]
*6 din[2]
*7 din[1]
*8 din[0]
*9 vin
*10 rst
*11 clk
*12 dout[7]
*13 dout[6]
*14 dout[5]
*15 dout[4]
*16 dout[3]
*17 dout[2]
*18 dout[1]
*19 dout[0]
*20 FE_OFN4_FE_DBTN1_vin
*21 FE_OFN3_rst
*22 FE_OFN2_rst
*23 FE_OFN1_vin
*24 FE_OFN0_vin
*25 FE_DBTN1_vin
*26 FE_DBTN0_n3
*27 reg_7__14_
*28 reg_7__13_
*29 reg_7__12_
*30 reg_7__11_
*31 reg_7__10_
*32 reg_7__9_
*33 reg_7__8_
*34 reg_7__7_
*35 reg_7__6_
*36 reg_7__5_
*37 reg_7__4_
*38 reg_7__3_
*39 reg_7__2_
*40 reg_7__1_
*41 reg_7__0_
*42 reg_6__13_
*43 reg_6__12_
*44 reg_6__11_
*45 reg_6__10_
*46 reg_6__9_
*47 reg_6__8_
*48 reg_6__7_
*49 reg_6__6_
*50 reg_6__5_
*51 reg_6__4_
*52 reg_6__3_
*53 reg_6__2_
*54 reg_6__1_
*55 reg_6__0_
*56 reg_5__14_
*57 reg_5__13_
*58 reg_5__12_
*59 reg_5__11_
*60 reg_5__10_
*61 reg_5__9_
*62 reg_5__8_
*63 reg_5__7_
*64 reg_5__6_
*65 reg_5__5_
*66 reg_5__4_
*67 reg_5__3_
*68 reg_5__2_
*69 reg_5__1_
*70 reg_5__0_
*71 reg_4__13_
*72 reg_4__12_
*73 reg_4__11_
*74 reg_4__10_
*75 reg_4__9_
*76 reg_4__8_
*77 reg_4__7_
*78 reg_4__6_
*79 reg_4__5_
*80 reg_4__4_
*81 reg_4__3_
*82 reg_4__2_
*83 reg_4__1_
*84 reg_4__0_
*85 reg_3__14_
*86 reg_3__13_
*87 reg_3__12_
*88 reg_3__11_
*89 reg_3__10_
*90 reg_3__9_
*91 reg_3__8_
*92 reg_3__7_
*93 reg_3__6_
*94 reg_3__5_
*95 reg_3__4_
*96 reg_3__3_
*97 reg_3__2_
*98 reg_3__1_
*99 reg_3__0_
*100 reg_2__13_
*101 reg_2__12_
*102 reg_2__11_
*103 reg_2__10_
*104 reg_2__9_
*105 reg_2__8_
*106 reg_2__7_
*107 reg_2__6_
*108 reg_2__5_
*109 reg_2__4_
*110 reg_2__3_
*111 reg_2__2_
*112 reg_2__1_
*113 reg_2__0_
*114 reg_1__14_
*115 reg_1__13_
*116 reg_1__12_
*117 reg_1__11_
*118 reg_1__10_
*119 reg_1__9_
*120 reg_1__8_
*121 reg_1__7_
*122 reg_1__6_
*123 reg_1__5_
*124 reg_1__4_
*125 reg_1__3_
*126 reg_1__2_
*127 reg_1__1_
*128 reg_1__0_
*129 reg_0__13_
*130 reg_0__5_
*131 reg_0__4_
*132 reg_0__3_
*133 reg_0__2_
*134 reg_0__1_
*135 reg_0__0_
*136 N123
*137 N124
*138 N125
*139 N126
*140 N127
*141 N128
*142 N129
*143 N130
*144 n1
*145 n3
*146 n4
*147 n5
*148 n7
*149 n8
*150 n9
*151 n12
*152 n13
*153 n14
*154 n15
*155 n16
*156 n17
*157 n18
*158 n21
*159 n22
*160 n23
*161 n24
*162 n25
*163 n26
*164 n27
*165 n30
*166 n31
*167 n32
*168 n33
*169 n34
*170 n35
*171 n36
*172 n39
*173 n40
*174 n41
*175 n42
*176 n43
*177 n44
*178 n45
*179 n48
*180 n49
*181 n50
*182 n51
*183 n52
*184 n53
*185 n54
*186 n57
*187 n58
*188 n59
*189 n60
*190 n61
*191 n62
*192 n63
*193 n66
*194 n67
*195 n68
*196 n69
*197 n70
*198 n71
*199 n72
*200 n75
*201 n76
*202 n77
*203 n78
*204 n79
*205 n80
*206 n81
*207 n84
*208 n85
*209 n86
*210 n87
*211 n88
*212 n89
*213 n92
*214 n93
*215 n94
*216 n95
*217 n96
*218 n97
*219 n100
*220 n101
*221 n102
*222 n103
*223 n104
*224 n105
*225 n108
*226 n109
*227 n110
*228 n111
*229 n112
*230 n113
*231 n116
*232 n117
*233 n118
*234 n119
*235 n120
*236 n121
*237 n130
*238 n131
*239 n132
*240 n133
*241 n134
*242 n135
*243 n136
*244 n137
*245 n138
*246 n139
*247 n140
*248 n141
*249 n142
*250 n143
*251 n144
*252 n145
*253 n146
*254 n147
*255 n154
*256 n155
*257 n162
*258 n163
*259 n170
*260 n171
*261 n178
*262 n179
*263 n186
*264 n187
*265 n194
*266 n195
*267 n202
*268 n203
*269 n210
*270 n211
*271 n218
*272 n219
*273 n226
*274 n227
*275 n234
*276 n235
*277 n242
*278 n243
*279 n250
*280 n251
*281 n258
*282 n259
*283 n260
*284 n261
*285 n262
*286 n263
*287 n264
*288 n265
*289 n266
*290 n267
*291 n268
*292 n269
*293 n270
*294 n271
*295 n272
*296 n273
*297 n274
*298 n275
*299 N99
*300 N98
*301 N97
*302 N96
*303 N95
*304 N94
*305 N93
*306 N92
*307 N91
*308 N90
*309 N9
*310 N89
*311 N88
*312 N87
*313 N86
*314 N85
*315 N84
*316 N83
*317 N82
*318 N81
*319 N80
*320 N8
*321 N79
*322 N78
*323 N77
*324 N76
*325 N75
*326 N74
*327 N73
*328 N72
*329 N71
*330 N70
*331 N7
*332 N69
*333 N68
*334 N67
*335 N66
*336 N65
*337 N64
*338 N63
*339 N62
*340 N61
*341 N60
*342 N6
*343 N59
*344 N58
*345 N57
*346 N56
*347 N55
*348 N54
*349 N53
*350 N52
*351 N51
*352 N50
*353 N5
*354 N49
*355 N48
*356 N47
*357 N46
*358 N45
*359 N44
*360 N43
*361 N42
*362 N41
*363 N40
*364 N4
*365 N39
*366 N38
*367 N37
*368 N36
*369 N35
*370 N34
*371 N33
*372 N32
*373 N31
*374 N30
*375 N3
*376 N29
*377 N28
*378 N27
*379 N26
*380 N25
*381 N24
*382 N23
*383 N22
*384 N21
*385 N20
*386 N2
*387 N19
*388 N18
*389 N17
*390 N16
*391 N15
*392 N14
*393 N13
*394 N122
*395 N121
*396 N120
*397 N12
*398 N119
*399 N118
*400 N117
*401 N116
*402 N115
*403 N114
*404 N113
*405 N112
*406 N111
*407 N110
*408 N11
*409 N109
*410 N108
*411 N107
*412 N106
*413 N105
*414 N104
*415 N103
*416 N102
*417 N101
*418 N100
*419 N10
*420 N1
*421 mult_54_I5_n8
*422 mult_54_I5_n7
*423 mult_54_I5_n6
*424 mult_54_I5_n5
*425 mult_54_I5_n4
*426 mult_54_I5_n3
*427 mult_54_I5_n2
*428 mult_54_I3_n8
*429 mult_54_I3_n7
*430 mult_54_I3_n6
*431 mult_54_I3_n5
*432 mult_54_I3_n4
*433 mult_54_I3_n3
*434 mult_54_I3_n2
*435 n276
*436 n277
*437 n278
*438 n279
*439 n280
*440 n281
*441 n282
*442 n283
*443 n284
*444 n285
*445 n286
*446 n287
*447 n288
*448 n289
*449 n290
*450 n291
*451 n292
*452 n293
*453 n336
*454 n337
*455 n338
*456 n339
*457 n340
*458 n341
*459 n342
*460 n343
*461 n344
*462 n345
*463 n346
*464 n347
*465 n348
*466 n349
*467 n350
*468 n351
*469 n352
*470 n353
*471 n354
*472 n355
*473 n356
*474 n357
*475 n358
*476 n359
*477 n360
*478 n361
*479 n362
*480 n363
*481 n364
*482 n365
*483 n366
*484 n367
*485 n368
*486 n369
*487 n370
*488 n371
*489 n372
*490 n373
*491 n374
*492 n375
*493 n376
*494 n377
*495 n378
*496 n379
*497 n380
*498 n381
*499 n382
*500 n383
*501 n384
*502 n385
*503 n386
*504 n387
*505 n388
*506 n389
*507 n390
*508 n391
*509 n392
*510 n393
*511 n394
*512 n395
*513 n396
*514 n397
*515 n398
*516 n399
*517 n400
*518 n401
*519 n402
*520 n403
*521 n404
*522 n405
*523 n406
*524 n407
*525 n408
*526 n409
*527 n410
*528 n411
*529 n412
*530 n413
*531 n414
*532 n415
*533 n416
*534 n417
*535 n418
*536 n419
*537 n420
*538 n421
*539 n422
*540 n423
*541 n424
*542 n425
*543 n426
*544 n427
*545 n428
*546 n429
*547 n430
*548 n431
*549 n432
*550 n433
*551 n434
*552 n435
*553 n436
*554 n437
*555 n438
*556 n439
*557 n440
*558 n441
*559 n442
*560 n443
*561 n444
*562 n445
*563 n446
*564 n447
*565 n448
*566 n449
*567 n450
*568 n451
*569 n452
*570 n453
*571 n454
*572 n455
*573 n456
*574 n457
*575 n458
*576 n459
*577 n460
*578 n461
*579 n462
*580 n463
*581 n464
*582 mult_54_I2_n54
*583 mult_54_I2_n53
*584 mult_54_I2_n52
*585 mult_54_I2_n51
*586 mult_54_I2_n50
*587 mult_54_I2_n49
*588 mult_54_I2_n48
*589 mult_54_I2_n47
*590 mult_54_I2_n46
*591 mult_54_I2_n9
*592 mult_54_I2_n8
*593 mult_54_I2_n7
*594 mult_54_I2_n6
*595 mult_54_I2_n5
*596 mult_54_I2_n4
*597 mult_54_I2_n3
*598 mult_54_I2_n2
*599 mult_54_I4_n106
*600 mult_54_I4_n105
*601 mult_54_I4_n104
*602 mult_54_I4_n103
*603 mult_54_I4_n102
*604 mult_54_I4_n101
*605 mult_54_I4_n100
*606 mult_54_I4_n99
*607 mult_54_I4_n98
*608 mult_54_I4_n97
*609 mult_54_I4_n96
*610 mult_54_I4_n95
*611 mult_54_I4_n94
*612 mult_54_I4_n93
*613 mult_54_I4_n56
*614 mult_54_I4_n55
*615 mult_54_I4_n54
*616 mult_54_I4_n53
*617 mult_54_I4_n52
*618 mult_54_I4_n51
*619 mult_54_I4_n50
*620 mult_54_I4_n49
*621 mult_54_I4_n48
*622 mult_54_I4_n47
*623 mult_54_I4_n46
*624 mult_54_I4_n45
*625 mult_54_I4_n44
*626 mult_54_I4_n43
*627 mult_54_I4_n42
*628 mult_54_I4_n41
*629 mult_54_I4_n40
*630 mult_54_I4_n39
*631 mult_54_I4_n38
*632 mult_54_I4_n37
*633 mult_54_I4_n36
*634 mult_54_I4_n35
*635 mult_54_I4_n34
*636 mult_54_I4_n33
*637 mult_54_I4_n32
*638 mult_54_I4_n31
*639 mult_54_I4_n30
*640 mult_54_I4_n29
*641 mult_54_I4_n28
*642 mult_54_I4_n27
*643 mult_54_I4_n26
*644 mult_54_I4_n25
*645 mult_54_I4_n24
*646 mult_54_I4_n23
*647 mult_54_I4_n22
*648 mult_54_I4_n21
*649 mult_54_I4_n20
*650 mult_54_I4_n19
*651 mult_54_I4_n9
*652 mult_54_I4_n8
*653 mult_54_I4_n7
*654 mult_54_I4_n6
*655 mult_54_I4_n5
*656 mult_54_I4_n4
*657 mult_54_I4_n3
*658 mult_54_I4_n2
*659 mult_54_I6_n54
*660 mult_54_I6_n53
*661 mult_54_I6_n52
*662 mult_54_I6_n51
*663 mult_54_I6_n50
*664 mult_54_I6_n49
*665 mult_54_I6_n48
*666 mult_54_I6_n47
*667 mult_54_I6_n46
*668 mult_54_I6_n9
*669 mult_54_I6_n8
*670 mult_54_I6_n7
*671 mult_54_I6_n6
*672 mult_54_I6_n5
*673 mult_54_I6_n4
*674 mult_54_I6_n3
*675 mult_54_I6_n2
*676 add_7_root_add_0_root_add_58_I8_n1
*677 add_5_root_add_0_root_add_58_I8_n1
*678 add_4_root_add_0_root_add_58_I8_n1
*679 add_2_root_add_0_root_add_58_I8_n1
*680 add_3_root_add_0_root_add_58_I8_n1
*681 add_1_root_add_0_root_add_58_I8_n1
*682 add_0_root_add_0_root_add_58_I8_n2
*683 add_6_root_add_0_root_add_58_I8_carry[7]
*684 add_6_root_add_0_root_add_58_I8_carry[6]
*685 add_6_root_add_0_root_add_58_I8_carry[5]
*686 add_6_root_add_0_root_add_58_I8_carry[4]
*687 add_6_root_add_0_root_add_58_I8_carry[3]
*688 add_6_root_add_0_root_add_58_I8_carry[2]
*689 add_6_root_add_0_root_add_58_I8_carry[1]
*690 sub_mult_54_I8_carry[13]
*691 sub_mult_54_I8_carry[12]
*692 sub_mult_54_I8_carry[11]
*693 sub_mult_54_I8_carry[10]
*694 sub_mult_54_I8_carry[9]
*695 sub_mult_54_I8_carry[8]
*696 sub_mult_54_I8_carry[7]
*697 sub_mult_54_I7_carry[14]
*698 sub_mult_54_I7_carry[13]
*699 sub_mult_54_I7_carry[12]
*700 sub_mult_54_I7_carry[11]
*701 sub_mult_54_I7_carry[10]
*702 sub_mult_54_I7_carry[9]
*703 sub_mult_54_I7_carry[8]
*704 sub_mult_54_I7_carry[7]
*705 sub_mult_54_carry[14]
*706 sub_mult_54_carry[13]
*707 sub_mult_54_carry[12]
*708 sub_mult_54_carry[11]
*709 sub_mult_54_carry[10]
*710 sub_mult_54_carry[9]
*711 sub_mult_54_carry[8]
*712 sub_mult_54_carry[7]
*713 sub_mult_46_carry[8]
*714 sub_mult_46_carry[7]
*715 add_7_root_add_0_root_add_58_I8_carry[7]
*716 add_7_root_add_0_root_add_58_I8_carry[6]
*717 add_7_root_add_0_root_add_58_I8_carry[5]
*718 add_7_root_add_0_root_add_58_I8_carry[4]
*719 add_7_root_add_0_root_add_58_I8_carry[3]
*720 add_7_root_add_0_root_add_58_I8_carry[2]
*721 add_5_root_add_0_root_add_58_I8_carry[7]
*722 add_5_root_add_0_root_add_58_I8_carry[6]
*723 add_5_root_add_0_root_add_58_I8_carry[5]
*724 add_5_root_add_0_root_add_58_I8_carry[4]
*725 add_5_root_add_0_root_add_58_I8_carry[3]
*726 add_5_root_add_0_root_add_58_I8_carry[2]
*727 add_4_root_add_0_root_add_58_I8_carry[7]
*728 add_4_root_add_0_root_add_58_I8_carry[6]
*729 add_4_root_add_0_root_add_58_I8_carry[5]
*730 add_4_root_add_0_root_add_58_I8_carry[4]
*731 add_4_root_add_0_root_add_58_I8_carry[3]
*732 add_4_root_add_0_root_add_58_I8_carry[2]
*733 add_2_root_add_0_root_add_58_I8_carry[7]
*734 add_2_root_add_0_root_add_58_I8_carry[6]
*735 add_2_root_add_0_root_add_58_I8_carry[5]
*736 add_2_root_add_0_root_add_58_I8_carry[4]
*737 add_2_root_add_0_root_add_58_I8_carry[3]
*738 add_2_root_add_0_root_add_58_I8_carry[2]
*739 add_3_root_add_0_root_add_58_I8_carry[7]
*740 add_3_root_add_0_root_add_58_I8_carry[6]
*741 add_3_root_add_0_root_add_58_I8_carry[5]
*742 add_3_root_add_0_root_add_58_I8_carry[4]
*743 add_3_root_add_0_root_add_58_I8_carry[3]
*744 add_3_root_add_0_root_add_58_I8_carry[2]
*745 add_1_root_add_0_root_add_58_I8_carry[7]
*746 add_1_root_add_0_root_add_58_I8_carry[6]
*747 add_1_root_add_0_root_add_58_I8_carry[5]
*748 add_1_root_add_0_root_add_58_I8_carry[4]
*749 add_1_root_add_0_root_add_58_I8_carry[3]
*750 add_1_root_add_0_root_add_58_I8_carry[2]
*751 add_0_root_add_0_root_add_58_I8_carry[7]
*752 add_0_root_add_0_root_add_58_I8_carry[6]
*753 add_0_root_add_0_root_add_58_I8_carry[5]
*754 add_0_root_add_0_root_add_58_I8_carry[4]
*755 add_0_root_add_0_root_add_58_I8_carry[3]
*756 add_0_root_add_0_root_add_58_I8_carry[2]
*757 vout
*758 FE_RC_0_0
*759 FE_OFC4_FE_DBTN1_vin
*760 FE_OFC3_rst
*761 FE_OFC2_rst
*762 FE_OFC1_vin
*763 FE_OFC0_vin
*764 FE_DBTC1_vin
*765 FE_DBTC0_n3
*766 dout_reg_7_
*767 dout_reg_6_
*768 dout_reg_5_
*769 dout_reg_4_
*770 dout_reg_3_
*771 dout_reg_2_
*772 dout_reg_1_
*773 dout_reg_0_
*774 reg_reg_0__14_
*775 reg_reg_1__14_
*776 reg_reg_2__14_
*777 reg_reg_3__14_
*778 reg_reg_4__14_
*779 reg_reg_5__14_
*780 reg_reg_6__14_
*781 reg_reg_7__14_
*782 reg_reg_0__13_
*783 reg_reg_1__13_
*784 reg_reg_2__13_
*785 reg_reg_3__13_
*786 reg_reg_4__13_
*787 reg_reg_5__13_
*788 reg_reg_6__13_
*789 reg_reg_7__13_
*790 reg_reg_0__12_
*791 reg_reg_1__12_
*792 reg_reg_2__12_
*793 reg_reg_3__12_
*794 reg_reg_4__12_
*795 reg_reg_5__12_
*796 reg_reg_6__12_
*797 reg_reg_7__12_
*798 reg_reg_0__11_
*799 reg_reg_1__11_
*800 reg_reg_2__11_
*801 reg_reg_3__11_
*802 reg_reg_4__11_
*803 reg_reg_5__11_
*804 reg_reg_6__11_
*805 reg_reg_7__11_
*806 reg_reg_0__10_
*807 reg_reg_1__10_
*808 reg_reg_2__10_
*809 reg_reg_3__10_
*810 reg_reg_4__10_
*811 reg_reg_5__10_
*812 reg_reg_6__10_
*813 reg_reg_7__10_
*814 reg_reg_0__9_
*815 reg_reg_1__9_
*816 reg_reg_2__9_
*817 reg_reg_3__9_
*818 reg_reg_4__9_
*819 reg_reg_5__9_
*820 reg_reg_6__9_
*821 reg_reg_7__9_
*822 reg_reg_0__8_
*823 reg_reg_1__8_
*824 reg_reg_2__8_
*825 reg_reg_3__8_
*826 reg_reg_4__8_
*827 reg_reg_5__8_
*828 reg_reg_6__8_
*829 reg_reg_7__8_
*830 reg_reg_0__7_
*831 reg_reg_1__7_
*832 reg_reg_2__7_
*833 reg_reg_3__7_
*834 reg_reg_4__7_
*835 reg_reg_5__7_
*836 reg_reg_6__7_
*837 reg_reg_7__7_
*838 reg_reg_0__6_
*839 reg_reg_1__6_
*840 reg_reg_2__6_
*841 reg_reg_3__6_
*842 reg_reg_4__6_
*843 reg_reg_5__6_
*844 reg_reg_6__6_
*845 reg_reg_7__6_
*846 reg_reg_0__5_
*847 reg_reg_1__5_
*848 reg_reg_2__5_
*849 reg_reg_3__5_
*850 reg_reg_4__5_
*851 reg_reg_5__5_
*852 reg_reg_6__5_
*853 reg_reg_7__5_
*854 reg_reg_0__4_
*855 reg_reg_1__4_
*856 reg_reg_2__4_
*857 reg_reg_3__4_
*858 reg_reg_4__4_
*859 reg_reg_5__4_
*860 reg_reg_6__4_
*861 reg_reg_7__4_
*862 reg_reg_0__3_
*863 reg_reg_1__3_
*864 reg_reg_2__3_
*865 reg_reg_3__3_
*866 reg_reg_4__3_
*867 reg_reg_5__3_
*868 reg_reg_6__3_
*869 reg_reg_7__3_
*870 reg_reg_0__2_
*871 reg_reg_1__2_
*872 reg_reg_2__2_
*873 reg_reg_3__2_
*874 reg_reg_4__2_
*875 reg_reg_5__2_
*876 reg_reg_6__2_
*877 reg_reg_7__2_
*878 reg_reg_0__1_
*879 reg_reg_1__1_
*880 reg_reg_2__1_
*881 reg_reg_3__1_
*882 reg_reg_4__1_
*883 reg_reg_5__1_
*884 reg_reg_6__1_
*885 reg_reg_7__1_
*886 reg_reg_0__0_
*887 reg_reg_1__0_
*888 reg_reg_2__0_
*889 reg_reg_3__0_
*890 reg_reg_4__0_
*891 reg_reg_5__0_
*892 reg_reg_6__0_
*893 reg_reg_7__0_
*894 add_6_root_add_0_root_add_58_I8_U1_1
*895 add_6_root_add_0_root_add_58_I8_U1_2
*896 add_6_root_add_0_root_add_58_I8_U1_3
*897 add_6_root_add_0_root_add_58_I8_U1_4
*898 add_6_root_add_0_root_add_58_I8_U1_5
*899 add_6_root_add_0_root_add_58_I8_U1_6
*900 add_6_root_add_0_root_add_58_I8_U1_7
*901 mult_54_I5_U9
*902 mult_54_I5_U8
*903 mult_54_I5_U7
*904 mult_54_I5_U6
*905 mult_54_I5_U5
*906 mult_54_I5_U4
*907 mult_54_I5_U3
*908 mult_54_I3_U9
*909 mult_54_I3_U8
*910 mult_54_I3_U7
*911 mult_54_I3_U6
*912 mult_54_I3_U5
*913 mult_54_I3_U4
*914 mult_54_I3_U3
*915 U269
*916 U283
*917 U284
*918 U285
*919 U286
*920 U287
*921 U288
*922 U289
*923 U290
*924 U292
*925 U293
*926 U294
*927 U295
*928 U303
*929 U304
*930 U305
*931 U306
*932 U307
*933 U309
*934 U310
*935 U311
*936 U312
*937 U313
*938 U314
*939 U315
*940 U316
*941 U317
*942 U318
*943 U319
*944 U320
*945 U321
*946 U322
*947 U323
*948 U324
*949 U325
*950 U326
*951 U327
*952 U328
*953 U329
*954 U330
*955 U331
*956 U332
*957 U333
*958 U334
*959 U335
*960 U336
*961 U339
*962 U340
*963 U341
*964 U342
*965 U343
*966 U344
*967 U345
*968 U346
*969 U347
*970 U348
*971 U349
*972 U350
*973 U351
*974 U352
*975 U353
*976 U354
*977 U355
*978 U356
*979 U357
*980 U358
*981 U359
*982 U360
*983 U361
*984 U362
*985 U363
*986 U364
*987 U365
*988 U366
*989 U367
*990 U368
*991 U369
*992 U370
*993 U371
*994 U372
*995 U373
*996 U374
*997 U375
*998 U376
*999 U377
*1000 U378
*1001 U379
*1002 U380
*1003 U381
*1004 U382
*1005 U383
*1006 U384
*1007 U385
*1008 U386
*1009 U387
*1010 U388
*1011 U389
*1012 U390
*1013 U391
*1014 U392
*1015 U393
*1016 U394
*1017 U395
*1018 U396
*1019 U397
*1020 U398
*1021 U399
*1022 U400
*1023 U401
*1024 U402
*1025 U403
*1026 U404
*1027 U405
*1028 U406
*1029 U407
*1030 U408
*1031 U409
*1032 U410
*1033 U411
*1034 U412
*1035 U413
*1036 U414
*1037 U415
*1038 U416
*1039 U421
*1040 U422
*1041 U423
*1042 U424
*1043 U425
*1044 U426
*1045 U427
*1046 U428
*1047 U429
*1048 U430
*1049 U431
*1050 U432
*1051 U433
*1052 U434
*1053 U435
*1054 U436
*1055 U437
*1056 U438
*1057 U439
*1058 U440
*1059 U441
*1060 U442
*1061 U443
*1062 U444
*1063 U445
*1064 U446
*1065 U447
*1066 U448
*1067 U449
*1068 U450
*1069 U451
*1070 U452
*1071 U453
*1072 U454
*1073 U455
*1074 U456
*1075 U457
*1076 U458
*1077 U459
*1078 U460
*1079 U461
*1080 U462
*1081 U463
*1082 U464
*1083 U465
*1084 U466
*1085 U467
*1086 U468
*1087 U469
*1088 U470
*1089 U471
*1090 U472
*1091 U473
*1092 U474
*1093 U475
*1094 U476
*1095 U477
*1096 U478
*1097 U479
*1098 U480
*1099 U481
*1100 U482
*1101 U483
*1102 U484
*1103 U485
*1104 U486
*1105 U487
*1106 U488
*1107 U489
*1108 U490
*1109 U491
*1110 U492
*1111 U493
*1112 U494
*1113 U495
*1114 U496
*1115 U497
*1116 U498
*1117 U499
*1118 U500
*1119 U501
*1120 U502
*1121 U503
*1122 U504
*1123 U505
*1124 U506
*1125 U507
*1126 U508
*1127 U509
*1128 U510
*1129 U511
*1130 U512
*1131 U513
*1132 U514
*1133 U515
*1134 U516
*1135 U517
*1136 U518
*1137 U519
*1138 U520
*1139 U521
*1140 U522
*1141 U523
*1142 U524
*1143 U525
*1144 U526
*1145 U527
*1146 U528
*1147 U529
*1148 U530
*1149 U531
*1150 U532
*1151 U547
*1152 U548
*1153 U549
*1154 U550
*1155 U551
*1156 U552
*1157 U553
*1158 U554
*1159 U555
*1160 U556
*1161 U557
*1162 U558
*1163 U559
*1164 U560
*1165 U561
*1166 U562
*1167 U563
*1168 U564
*1169 U565
*1170 U566
*1171 U567
*1172 U568
*1173 U569
*1174 U570
*1175 U571
*1176 U572
*1177 U573
*1178 U574
*1179 U575
*1180 U576
*1181 U577
*1182 U578
*1183 U579
*1184 U580
*1185 U581
*1186 U582
*1187 U583
*1188 U584
*1189 U585
*1190 U586
*1191 U587
*1192 U588
*1193 U589
*1194 U590
*1195 U591
*1196 U592
*1197 U593
*1198 U594
*1199 U595
*1200 U596
*1201 U597
*1202 U598
*1203 U599
*1204 U600
*1205 U601
*1206 U602
*1207 U603
*1208 U604
*1209 U605
*1210 U606
*1211 U607
*1212 U608
*1213 mult_54_I2_U29
*1214 mult_54_I2_U28
*1215 mult_54_I2_U27
*1216 mult_54_I2_U26
*1217 mult_54_I2_U25
*1218 mult_54_I2_U24
*1219 mult_54_I2_U23
*1220 mult_54_I2_U22
*1221 mult_54_I2_U21
*1222 mult_54_I2_U20
*1223 mult_54_I2_U19
*1224 mult_54_I2_U9
*1225 mult_54_I2_U8
*1226 mult_54_I2_U7
*1227 mult_54_I2_U6
*1228 mult_54_I2_U5
*1229 mult_54_I2_U4
*1230 mult_54_I2_U3
*1231 mult_54_I4_U57
*1232 mult_54_I4_U56
*1233 mult_54_I4_U55
*1234 mult_54_I4_U54
*1235 mult_54_I4_U53
*1236 mult_54_I4_U52
*1237 mult_54_I4_U51
*1238 mult_54_I4_U50
*1239 mult_54_I4_U49
*1240 mult_54_I4_U48
*1241 mult_54_I4_U47
*1242 mult_54_I4_U46
*1243 mult_54_I4_U45
*1244 mult_54_I4_U44
*1245 mult_54_I4_U43
*1246 mult_54_I4_U38
*1247 mult_54_I4_U37
*1248 mult_54_I4_U36
*1249 mult_54_I4_U35
*1250 mult_54_I4_U34
*1251 mult_54_I4_U33
*1252 mult_54_I4_U32
*1253 mult_54_I4_U31
*1254 mult_54_I4_U30
*1255 mult_54_I4_U29
*1256 mult_54_I4_U28
*1257 mult_54_I4_U27
*1258 mult_54_I4_U26
*1259 mult_54_I4_U25
*1260 mult_54_I4_U24
*1261 mult_54_I4_U23
*1262 mult_54_I4_U22
*1263 mult_54_I4_U21
*1264 mult_54_I4_U20
*1265 mult_54_I4_U9
*1266 mult_54_I4_U8
*1267 mult_54_I4_U7
*1268 mult_54_I4_U6
*1269 mult_54_I4_U5
*1270 mult_54_I4_U4
*1271 mult_54_I4_U3
*1272 mult_54_I6_U29
*1273 mult_54_I6_U28
*1274 mult_54_I6_U27
*1275 mult_54_I6_U26
*1276 mult_54_I6_U25
*1277 mult_54_I6_U24
*1278 mult_54_I6_U23
*1279 mult_54_I6_U22
*1280 mult_54_I6_U21
*1281 mult_54_I6_U20
*1282 mult_54_I6_U19
*1283 mult_54_I6_U9
*1284 mult_54_I6_U8
*1285 mult_54_I6_U7
*1286 mult_54_I6_U6
*1287 mult_54_I6_U5
*1288 mult_54_I6_U4
*1289 mult_54_I6_U3
*1290 add_7_root_add_0_root_add_58_I8_U2
*1291 add_7_root_add_0_root_add_58_I8_U1
*1292 add_7_root_add_0_root_add_58_I8_U1_1
*1293 add_7_root_add_0_root_add_58_I8_U1_2
*1294 add_7_root_add_0_root_add_58_I8_U1_3
*1295 add_7_root_add_0_root_add_58_I8_U1_4
*1296 add_7_root_add_0_root_add_58_I8_U1_5
*1297 add_7_root_add_0_root_add_58_I8_U1_6
*1298 add_7_root_add_0_root_add_58_I8_U1_7
*1299 add_5_root_add_0_root_add_58_I8_U2
*1300 add_5_root_add_0_root_add_58_I8_U1
*1301 add_5_root_add_0_root_add_58_I8_U1_1
*1302 add_5_root_add_0_root_add_58_I8_U1_2
*1303 add_5_root_add_0_root_add_58_I8_U1_3
*1304 add_5_root_add_0_root_add_58_I8_U1_4
*1305 add_5_root_add_0_root_add_58_I8_U1_5
*1306 add_5_root_add_0_root_add_58_I8_U1_6
*1307 add_5_root_add_0_root_add_58_I8_U1_7
*1308 add_4_root_add_0_root_add_58_I8_U2
*1309 add_4_root_add_0_root_add_58_I8_U1
*1310 add_4_root_add_0_root_add_58_I8_U1_1
*1311 add_4_root_add_0_root_add_58_I8_U1_2
*1312 add_4_root_add_0_root_add_58_I8_U1_3
*1313 add_4_root_add_0_root_add_58_I8_U1_4
*1314 add_4_root_add_0_root_add_58_I8_U1_5
*1315 add_4_root_add_0_root_add_58_I8_U1_6
*1316 add_4_root_add_0_root_add_58_I8_U1_7
*1317 add_2_root_add_0_root_add_58_I8_U2
*1318 add_2_root_add_0_root_add_58_I8_U1
*1319 add_2_root_add_0_root_add_58_I8_U1_1
*1320 add_2_root_add_0_root_add_58_I8_U1_2
*1321 add_2_root_add_0_root_add_58_I8_U1_3
*1322 add_2_root_add_0_root_add_58_I8_U1_4
*1323 add_2_root_add_0_root_add_58_I8_U1_5
*1324 add_2_root_add_0_root_add_58_I8_U1_6
*1325 add_2_root_add_0_root_add_58_I8_U1_7
*1326 add_3_root_add_0_root_add_58_I8_U2
*1327 add_3_root_add_0_root_add_58_I8_U1
*1328 add_3_root_add_0_root_add_58_I8_U1_1
*1329 add_3_root_add_0_root_add_58_I8_U1_2
*1330 add_3_root_add_0_root_add_58_I8_U1_3
*1331 add_3_root_add_0_root_add_58_I8_U1_4
*1332 add_3_root_add_0_root_add_58_I8_U1_5
*1333 add_3_root_add_0_root_add_58_I8_U1_6
*1334 add_3_root_add_0_root_add_58_I8_U1_7
*1335 add_1_root_add_0_root_add_58_I8_U2
*1336 add_1_root_add_0_root_add_58_I8_U1
*1337 add_1_root_add_0_root_add_58_I8_U1_1
*1338 add_1_root_add_0_root_add_58_I8_U1_2
*1339 add_1_root_add_0_root_add_58_I8_U1_3
*1340 add_1_root_add_0_root_add_58_I8_U1_4
*1341 add_1_root_add_0_root_add_58_I8_U1_5
*1342 add_1_root_add_0_root_add_58_I8_U1_6
*1343 add_1_root_add_0_root_add_58_I8_U1_7
*1344 add_0_root_add_0_root_add_58_I8_U2
*1345 add_0_root_add_0_root_add_58_I8_U1
*1346 add_0_root_add_0_root_add_58_I8_U1_1
*1347 add_0_root_add_0_root_add_58_I8_U1_2
*1348 add_0_root_add_0_root_add_58_I8_U1_3
*1349 add_0_root_add_0_root_add_58_I8_U1_4
*1350 add_0_root_add_0_root_add_58_I8_U1_5
*1351 add_0_root_add_0_root_add_58_I8_U1_6
*1352 add_0_root_add_0_root_add_58_I8_U1_7


*PORTS

*1 I *C 0 0
*2 I *C 0 0
*3 I *C 0 0
*4 I *C 0 0
*5 I *C 0 0
*6 I *C 0 0
*7 I *C 0 0
*8 I *C 0 0
*9 I *C 0 0
*10 I *C 0 0
*11 I *C 0 0
*12 O *C 0 0
*13 O *C 0 0
*14 O *C 0 0
*15 O *C 0 0
*16 O *C 0 0
*17 O *C 0 0
*18 O *C 0 0
*19 O *C 0 0
*757 O *C 0 0


*D_NET *1 0.00027122

*CONN
*P *1 I *C 0 0 *L 0
*I *961:A I *C 48.13 26.565 *L 0.0017 *D INV_X1
*I *930:A1 I *C 45.985 28.315 *L 0.0016 *D NAND2_X1

*CAP
1 *961:A 3.328e-05
2 *930:A1 3.769e-05
3 *1:3 5.016e-05
4 *1:4 1.741e-05
5 *1:5 1.971e-05
6 *1:6 3.684e-05
7 *1:7 3.454e-05
8 *1:8 4.159e-05

*RES
1 *1:8 *961:A 5.15714
2 *1:7 *1:8 5
3 *1:7 *1:6 4.5
4 *1:5 *1:6 0.678571
5 *1:5 *1:4 1
6 *1:3 *1:4 5
7 *930:A1 *1:3 5.15714
8 *1:7 *1 401.09
*END

*D_NET *2 0.00061425

*CONN
*P *2 I *C 0 0 *L 0
*I *1197:A3 I *C 54.02 20.965 *L 0.000924 *D OR4_X1
*I *1030:A1 I *C 48.455 22.715 *L 0.0016 *D NAND2_X1

*CAP
1 *1197:A3 1.662e-05
2 *1030:A1 9.228e-05
3 *2:3 1.834e-05
4 *2:4 1.834e-05
5 *2:5 0.00010059
6 *2:6 4.964e-05
7 *2:7 5.66e-05
8 *2:8 7.012e-05
9 *2:9 7.012e-05
10 *2:10 2.925e-05
11 *2:11 2.229e-05
12 *2:12 3.503e-05
13 *2:13 3.503e-05

*RES
1 *2:13 *1197:A3 5
2 *2:13 *2:12 4.5
3 *2:11 *2:12 5
4 *2:10 *2:11 1.35714
5 *2:9 *2:10 1
6 *2:8 *2:9 6.10714
7 *2:8 *2:7 1
8 *2:6 *2:7 4.07143
9 *2:4 *2:6 5
10 *2:4 *2:3 1
11 *2:5 *2:3 5
12 *1030:A1 *2:5 12.3771
13 *1030:A1 *2 386.351
*END

*D_NET *3 0.00046013

*CONN
*P *3 I *C 0 0 *L 0
*I *1197:A4 I *C 54.21 20.965 *L 0.000914 *D OR4_X1
*I *1038:A1 I *C 51.685 19.915 *L 0.0016 *D NAND2_X1

*CAP
1 *1197:A4 1.662e-05
2 *1038:A1 3.698e-05
3 *3:3 7.34e-05
4 *3:4 7.34e-05
5 *3:5 9.962e-05
6 *3:6 9.962e-05
7 *3:7 1.52e-05
8 *3:8 4.529e-05

*RES
1 *1038:A1 *3:8 5.15714
2 *3:7 *3:8 5
3 *3:6 *3:7 5
4 *3:6 *3:5 5.42857
5 *3:4 *3:5 5
6 *3:4 *3:3 4.5
7 *1197:A4 *3:3 5
8 *1038:A1 *3 388.686
*END

*D_NET *4 0.00017287

*CONN
*P *4 I *C 0 0 *L 0
*I *1197:A1 I *C 53.64 20.965 *L 0.000941 *D OR4_X1
*I *1028:A1 I *C 53.195 19.915 *L 0.0016 *D NAND2_X1

*CAP
1 *1197:A1 2.575e-05
2 *1028:A1 1.662e-05
3 *4:3 4.822e-05
4 *4:4 4.822e-05
5 *4:5 3.406e-05

*RES
1 *4:5 *1197:A1 3.09429
2 *4:4 *4:5 5
3 *4:3 *4:4 4.5
4 *1028:A1 *4:3 5
5 *4:3 *4 395.824
*END

*D_NET *5 0.00026137

*CONN
*P *5 I *C 0 0 *L 0
*I *1197:A2 I *C 53.83 20.965 *L 0.000938 *D OR4_X1
*I *1036:A1 I *C 55.095 19.915 *L 0.0016 *D NAND2_X1

*CAP
1 *1197:A2 1.662e-05
2 *1036:A1 4.457e-05
3 *5:3 4.922e-05
4 *5:4 5.152e-05
5 *5:5 2.443e-05
6 *5:6 2.213e-05
7 *5:7 5.288e-05

*RES
1 *5:7 *1036:A1 5.15714
2 *5:6 *5:7 5
3 *5:6 *5:5 1
4 *5:4 *5:5 0.678571
5 *5:4 *5:3 3.5
6 *1197:A2 *5:3 5
7 *5:6 *5 400.981
*END

*D_NET *6 0.00027731

*CONN
*P *6 I *C 0 0 *L 0
*I *1198:A3 I *C 53.45 14.315 *L 0.00164 *D NOR4_X1
*I *1034:A1 I *C 54.715 12.565 *L 0.0016 *D NAND2_X1

*CAP
1 *1198:A3 1.662e-05
2 *1034:A1 2.379e-05
3 *6:3 4.112e-05
4 *6:4 4.14e-05
5 *6:5 3.182e-05
6 *6:6 6.128e-05
7 *6:7 6.128e-05

*RES
1 *6:5 *1034:A1 3.09429
2 *6:5 *6:3 0.76
3 *6:4 *6:3 3.09429
4 *6:7 *6:4 5
5 *6:7 *6:6 5
6 *1198:A3 *6:6 5
7 *6:7 *6 359.887
*END

*D_NET *7 0.00045703

*CONN
*P *7 I *C 0 0 *L 0
*I *1198:A4 I *C 53.26 14.315 *L 0.00161 *D NOR4_X1
*I *1026:A1 I *C 53.765 9.765 *L 0.0016 *D NAND2_X1

*CAP
1 *1198:A4 1.662e-05
2 *1026:A1 1.815e-05
3 *7:3 0.0001979
4 *7:4 0.0001979
5 *7:5 2.646e-05

*RES
1 *7:5 *1026:A1 2.06286
2 *7:4 *7:5 5
3 *7:4 *7:3 15.5
4 *1198:A4 *7:3 5
5 *7:4 *7 342.896
*END

*D_NET *8 0.00067753

*CONN
*P *8 I *C 0 0 *L 0
*I *1198:A2 I *C 53.64 14.315 *L 0.00167 *D NOR4_X1
*I *1032:A1 I *C 51.875 8.715 *L 0.0016 *D NAND2_X1

*CAP
1 *1198:A2 1.662e-05
2 *1032:A1 1.574e-05
3 *8:3 2.494e-05
4 *8:4 2.266e-05
5 *8:5 2.678e-05
6 *8:6 2.906e-05
7 *8:7 6.052e-05
8 *8:8 6.052e-05
9 *8:9 4.192e-05
10 *8:10 4.192e-05
11 *8:11 7.574e-05
12 *8:12 7.802e-05
13 *8:13 5.298e-05
14 *8:14 5.298e-05
15 *8:15 2.768e-05
16 *8:16 2.54e-05
17 *8:17 2.405e-05

*RES
1 *1032:A1 *8:17 2.06286
2 *8:16 *8:17 5
3 *8:16 *8:15 1.5
4 *8:15 *8:14 0.678571
5 *8:14 *8:13 5
6 *8:12 *8:13 0.678571
7 *8:12 *8:11 6
8 *8:10 *8:11 5
9 *8:10 *8:9 4.75
10 *8:4 *8:9 5
11 *8:4 *8:3 1.5
12 *8:3 *8:8 0.678571
13 *8:8 *8:7 4.5
14 *8:6 *8:7 0.678571
15 *8:6 *8:5 1.5
16 *1198:A2 *8:5 5
17 *1032:A1 *8 328.917
*END

*D_NET *9 0.0137447

*CONN
*P *9 I *C 0 0 *L 0
*I *1150:B1 I *C 16.21 18.165 *L 0.00158 *D AOI22_X1
*I *1148:B1 I *C 16.4 9.765 *L 0.00158 *D AOI22_X1
*I *1144:B1 I *C 13.24 17.115 *L 0.00158 *D AOI22_X1
*I *1142:B1 I *C 12.79 14.315 *L 0.00158 *D AOI22_X1
*I *1140:B1 I *C 18.87 8.715 *L 0.00158 *D AOI22_X1
*I *1136:B1 I *C 11.91 11.515 *L 0.00158 *D AOI22_X1
*I *1134:B1 I *C 8.99 11.515 *L 0.00158 *D AOI22_X1
*I *1132:B1 I *C 14.69 8.715 *L 0.00158 *D AOI22_X1
*I *1128:B1 I *C 14 9.765 *L 0.00158 *D AOI22_X1
*I *1124:B1 I *C 11.72 51.765 *L 0.00158 *D AOI22_X1
*I *1118:B1 I *C 10.77 48.965 *L 0.00158 *D AOI22_X1
*I *1116:B1 I *C 10.51 47.915 *L 0.00158 *D AOI22_X1
*I *1114:B1 I *C 18.49 45.115 *L 0.00158 *D AOI22_X1
*I *1112:B1 I *C 22.17 39.515 *L 0.00158 *D AOI22_X1
*I *1110:B1 I *C 18.18 39.515 *L 0.00158 *D AOI22_X1
*I *1108:B1 I *C 16.4 37.765 *L 0.00158 *D AOI22_X1
*I *1106:B1 I *C 21.91 36.715 *L 0.00158 *D AOI22_X1
*I *1104:B1 I *C 23.12 33.915 *L 0.00158 *D AOI22_X1
*I *1102:B1 I *C 11.72 45.115 *L 0.00158 *D AOI22_X1
*I *1100:B1 I *C 14.31 37.765 *L 0.00158 *D AOI22_X1
*I *1098:B1 I *C 25.71 32.165 *L 0.00158 *D AOI22_X1
*I *1096:B1 I *C 25.78 31.115 *L 0.00158 *D AOI22_X1
*I *1094:B1 I *C 14 42.315 *L 0.00158 *D AOI22_X1
*I *1092:B1 I *C 13.93 33.915 *L 0.00158 *D AOI22_X1
*I *1090:B1 I *C 25.33 29.365 *L 0.00158 *D AOI22_X1
*I *1088:B1 I *C 25.02 25.515 *L 0.00158 *D AOI22_X1
*I *1086:B1 I *C 16.66 33.915 *L 0.00158 *D AOI22_X1
*I *1084:B1 I *C 14.69 32.165 *L 0.00158 *D AOI22_X1
*I *1082:B1 I *C 25.33 22.715 *L 0.00158 *D AOI22_X1
*I *1080:B1 I *C 21.98 20.965 *L 0.00158 *D AOI22_X1
*I *1078:B1 I *C 17.61 31.115 *L 0.00158 *D AOI22_X1
*I *1076:B1 I *C 15.45 23.765 *L 0.00158 *D AOI22_X1
*I *1074:B1 I *C 22.48 19.915 *L 0.00158 *D AOI22_X1
*I *1072:B1 I *C 25.78 19.915 *L 0.00158 *D AOI22_X1
*I *1070:B1 I *C 15.33 31.115 *L 0.00158 *D AOI22_X1
*I *1068:B1 I *C 14.12 29.365 *L 0.00158 *D AOI22_X1
*I *1066:B1 I *C 18.49 14.315 *L 0.00158 *D AOI22_X1
*I *1064:B1 I *C 21.79 18.165 *L 0.00158 *D AOI22_X1
*I *1062:B1 I *C 13.43 23.765 *L 0.00158 *D AOI22_X1
*I *1060:B1 I *C 14.69 20.965 *L 0.00158 *D AOI22_X1
*I *1058:B1 I *C 18.11 11.515 *L 0.00158 *D AOI22_X1
*I *1054:B1 I *C 15.52 19.915 *L 0.00158 *D AOI22_X1
*I *1052:B1 I *C 10.89 9.765 *L 0.00158 *D AOI22_X1
*I *1050:B1 I *C 12.03 8.715 *L 0.00158 *D AOI22_X1
*I *1046:B1 I *C 16.09 48.965 *L 0.00158 *D AOI22_X1
*I *1044:B1 I *C 15.07 51.765 *L 0.00158 *D AOI22_X1
*I *1040:B1 I *C 14.19 53.515 *L 0.00158 *D AOI22_X1
*I *763:A I *C 15.83 51.765 *L 0.000975 *D BUF_X1

*CAP
1 *1150:B1 1.662e-05
2 *1148:B1 1.662e-05
3 *1144:B1 1.662e-05
4 *1142:B1 1.662e-05
5 *1140:B1 1.662e-05
6 *1136:B1 1.662e-05
7 *1134:B1 1.662e-05
8 *1132:B1 1.662e-05
9 *1128:B1 1.662e-05
10 *1124:B1 1.662e-05
11 *1118:B1 1.662e-05
12 *1116:B1 1.662e-05
13 *1114:B1 1.662e-05
14 *1112:B1 1.662e-05
15 *1110:B1 1.662e-05
16 *1108:B1 1.662e-05
17 *1106:B1 1.662e-05
18 *1104:B1 1.662e-05
19 *1102:B1 1.662e-05
20 *1100:B1 1.662e-05
21 *1098:B1 1.662e-05
22 *1096:B1 1.662e-05
23 *1094:B1 1.662e-05
24 *1092:B1 1.662e-05
25 *1090:B1 1.662e-05
26 *1088:B1 1.662e-05
27 *1086:B1 1.662e-05
28 *1084:B1 1.662e-05
29 *1082:B1 1.662e-05
30 *1080:B1 1.662e-05
31 *1078:B1 1.662e-05
32 *1076:B1 1.662e-05
33 *1074:B1 1.662e-05
34 *1072:B1 1.662e-05
35 *1070:B1 1.662e-05
36 *1068:B1 1.662e-05
37 *1066:B1 1.662e-05
38 *1064:B1 1.662e-05